# generated using pymatgen
data_RuO2
_symmetry_space_group_name_H-M   'P 1'
_cell_length_a   6.27959200
_cell_length_b   12.85029962
_cell_length_c   40.88940300
_cell_angle_alpha   135.00000000
_cell_angle_beta   90.00000000
_cell_angle_gamma   90.00000000
_symmetry_Int_Tables_number   1
_chemical_formula_structural   RuO2
_chemical_formula_sum   'Ru32 O64'
_cell_volume   2333.13814024
_cell_formula_units_Z   32
loop_
 _symmetry_equiv_pos_site_id
 _symmetry_equiv_pos_as_xyz
  1  'x, y, z'
loop_
 _atom_site_type_symbol
 _atom_site_label
 _atom_site_symmetry_multiplicity
 _atom_site_fract_x
 _atom_site_fract_y
 _atom_site_fract_z
 _atom_site_occupancy
  Ru  Ru0  1  0.25000000  0.25000000  0.33333333  1
  Ru  Ru1  1  0.25000000  0.75000000  0.33333333  1
  Ru  Ru2  1  0.75000000  0.25000000  0.33333333  1
  Ru  Ru3  1  0.75000000  0.75000000  0.33333333  1
  Ru  Ru4  1  0.00000000  0.00000000  0.33333333  1
  Ru  Ru5  1  0.00000000  0.50000000  0.33333333  1
  Ru  Ru6  1  0.50000000  0.00000000  0.33333333  1
  Ru  Ru7  1  0.50000000  0.50000000  0.33333333  1
  O  O8  1  0.25000000  0.40284500  0.33333333  1
  O  O9  1  0.25000000  0.90284500  0.33333333  1
  O  O10  1  0.75000000  0.40284500  0.33333333  1
  O  O11  1  0.75000000  0.90284500  0.33333333  1
  O  O12  1  0.25000000  0.09715500  0.33333333  1
  O  O13  1  0.25000000  0.59715500  0.33333333  1
  O  O14  1  0.75000000  0.09715500  0.33333333  1
  O  O15  1  0.75000000  0.59715500  0.33333333  1
  O  O16  1  0.00000000  0.15284500  0.29015333  1
  O  O17  1  0.00000000  0.65284500  0.29015333  1
  O  O18  1  0.50000000  0.15284500  0.29015333  1
  O  O19  1  0.50000000  0.65284500  0.29015333  1
  O  O20  1  0.00000000  0.34715500  0.37651333  1
  O  O21  1  0.00000000  0.84715500  0.37651333  1
  O  O22  1  0.50000000  0.34715500  0.37651333  1
  O  O23  1  0.50000000  0.84715500  0.37651333  1
  Ru  Ru24  1  0.25000000  0.25000000  0.44444444  1
  Ru  Ru25  1  0.25000000  0.75000000  0.44444444  1
  Ru  Ru26  1  0.75000000  0.25000000  0.44444444  1
  Ru  Ru27  1  0.75000000  0.75000000  0.44444444  1
  Ru  Ru28  1  0.00000000  0.00000000  0.44444444  1
  Ru  Ru29  1  0.00000000  0.50000000  0.44444444  1
  Ru  Ru30  1  0.50000000  0.00000000  0.44444444  1
  Ru  Ru31  1  0.50000000  0.50000000  0.44444444  1
  O  O32  1  0.25000000  0.40284500  0.44444444  1
  O  O33  1  0.25000000  0.90284500  0.44444444  1
  O  O34  1  0.75000000  0.40284500  0.44444444  1
  O  O35  1  0.75000000  0.90284500  0.44444444  1
  O  O36  1  0.25000000  0.09715500  0.44444444  1
  O  O37  1  0.25000000  0.59715500  0.44444444  1
  O  O38  1  0.75000000  0.09715500  0.44444444  1
  O  O39  1  0.75000000  0.59715500  0.44444444  1
  O  O40  1  0.00000000  0.15284500  0.40126444  1
  O  O41  1  0.00000000  0.65284500  0.40126444  1
  O  O42  1  0.50000000  0.15284500  0.40126444  1
  O  O43  1  0.50000000  0.65284500  0.40126444  1
  O  O44  1  0.00000000  0.34715500  0.48762444  1
  O  O45  1  0.00000000  0.84715500  0.48762444  1
  O  O46  1  0.50000000  0.34715500  0.48762444  1
  O  O47  1  0.50000000  0.84715500  0.48762444  1
  Ru  Ru48  1  0.25000000  0.25000000  0.55555556  1
  Ru  Ru49  1  0.25000000  0.75000000  0.55555556  1
  Ru  Ru50  1  0.75000000  0.25000000  0.55555556  1
  Ru  Ru51  1  0.75000000  0.75000000  0.55555556  1
  Ru  Ru52  1  0.00000000  0.00000000  0.55555556  1
  Ru  Ru53  1  0.00000000  0.50000000  0.55555556  1
  Ru  Ru54  1  0.50000000  0.00000000  0.55555556  1
  Ru  Ru55  1  0.50000000  0.50000000  0.55555556  1
  O  O56  1  0.25000000  0.40284500  0.55555556  1
  O  O57  1  0.25000000  0.90284500  0.55555556  1
  O  O58  1  0.75000000  0.40284500  0.55555556  1
  O  O59  1  0.75000000  0.90284500  0.55555556  1
  O  O60  1  0.25000000  0.09715500  0.55555556  1
  O  O61  1  0.25000000  0.59715500  0.55555556  1
  O  O62  1  0.75000000  0.09715500  0.55555556  1
  O  O63  1  0.75000000  0.59715500  0.55555556  1
  O  O64  1  0.00000000  0.15284500  0.51237556  1
  O  O65  1  0.00000000  0.65284500  0.51237556  1
  O  O66  1  0.50000000  0.15284500  0.51237556  1
  O  O67  1  0.50000000  0.65284500  0.51237556  1
  O  O68  1  0.00000000  0.34715500  0.59873556  1
  O  O69  1  0.00000000  0.84715500  0.59873556  1
  O  O70  1  0.50000000  0.34715500  0.59873556  1
  O  O71  1  0.50000000  0.84715500  0.59873556  1
  Ru  Ru72  1  0.25000000  0.25000000  0.66666667  1
  Ru  Ru73  1  0.25000000  0.75000000  0.66666667  1
  Ru  Ru74  1  0.75000000  0.25000000  0.66666667  1
  Ru  Ru75  1  0.75000000  0.75000000  0.66666667  1
  Ru  Ru76  1  0.00000000  0.00000000  0.66666667  1
  Ru  Ru77  1  0.00000000  0.50000000  0.66666667  1
  Ru  Ru78  1  0.50000000  0.00000000  0.66666667  1
  Ru  Ru79  1  0.50000000  0.50000000  0.66666667  1
  O  O80  1  0.25000000  0.40284500  0.66666667  1
  O  O81  1  0.25000000  0.90284500  0.66666667  1
  O  O82  1  0.75000000  0.40284500  0.66666667  1
  O  O83  1  0.75000000  0.90284500  0.66666667  1
  O  O84  1  0.25000000  0.09715500  0.66666667  1
  O  O85  1  0.25000000  0.59715500  0.66666667  1
  O  O86  1  0.75000000  0.09715500  0.66666667  1
  O  O87  1  0.75000000  0.59715500  0.66666667  1
  O  O88  1  0.00000000  0.15284500  0.62348667  1
  O  O89  1  0.00000000  0.65284500  0.62348667  1
  O  O90  1  0.50000000  0.15284500  0.62348667  1
  O  O91  1  0.50000000  0.65284500  0.62348667  1
  O  O92  1  0.00000000  0.34715500  0.70984667  1
  O  O93  1  0.00000000  0.84715500  0.70984667  1
  O  O94  1  0.50000000  0.34715500  0.70984667  1
  O  O95  1  0.50000000  0.84715500  0.70984667  1
